/*--------------------------------*- C++ -*----------------------------------*\
| =========                 |                                                 |
| \\      /  F ield         | OpenFOAM: The Open Source CFD Toolbox           |
|  \\    /   O peration     | Version:  v2306                                 |
|   \\  /    A nd           | Website:  www.openfoam.com                      |
|    \\/     M anipulation  |                                                 |
\*---------------------------------------------------------------------------*/
FoamFile
{
    version     2.0;
    format      ascii;
    class       volScalarField;
    object      k;
}
// * * * * * * * * * * * * * * * * * * * * * * * * * * * * * * * * * * * * * //

dimensions      [ 0 2 -2 0 0 0 0 ];

internalField   uniform 0.100564;

boundaryField
{

    outlet
    {
        type            inletOutlet;
        value           $internalField;
        inletValue      $internalField;
    }

    inlet
    {
        type            atmBoundaryLayerInletK;
        #include        "include/ABLConditions"
    }

    side
    {
        type            zeroGradient;
    }

    top
    {
        type            zeroGradient;
    }

    air_to_floor
    {
        type            kqRWallFunction;
        value            $internalField;
    }
}


// ************************************************************************* //
