/*--------------------------------*- C++ -*----------------------------------*\
| =========                 |                                                 |
| \\      /  F ield         | OpenFOAM: The Open Source CFD Toolbox           |
|  \\    /   O peration     | Version:  2306                                  |
|   \\  /    A nd           | Website:  www.openfoam.com                      |
|    \\/     M anipulation  |                                                 |
\*---------------------------------------------------------------------------*/
FoamFile
{
    version     2.0;
    format      ascii;
    arch        "LSB;label=32;scalar=64";
    class       extendedFeatureEdgeMesh;
    location    "constant/extendedFeatureEdgeMesh";
    object      conditioner.extendedFeatureEdgeMesh;
}
// * * * * * * * * * * * * * * * * * * * * * * * * * * * * * * * * * * * * * //

// points
6((26.89028 16.18641 22) (25.01939 16.18641 22) (25.01939 31.63058 22) (26.89028 31.63058 22) (26.89028 23.90849 22) (25.01939 23.90849 22))
// edges
6((4 0) (0 1) (1 5) (2 3) (3 4) (5 2))
// concaveStart mixedStart nonFeatureStart
0 0 4
// internalStart flatStart openStart multipleStart
0 0 0 6
// normals
4{(0 0 -1)}
// normal volume types

4
(
0
0
0
0
)

// normalDirections

6
(
1(1)
1(1)
1(1)
1(1)
1(1)
1(1)
)

// edgeNormals

6
(
1(0)
1(1)
1(1)
1(2)
1(2)
1(3)
)

// featurePointNormals

4
(
1(0)
1(1)
1(2)
1(2)
)

// featurePointEdges

4
(
2(0 1)
2(1 2)
2(3 5)
2(3 4)
)

// regionEdges
6(0 1 2 3 4 5)


// ************************************************************************* //
