/*--------------------------------*- C++ -*----------------------------------*\
| =========                 |                                                 |
| \\      /  F ield         | OpenFOAM: The Open Source CFD Toolbox           |
|  \\    /   O peration     | Version:  2306                                  |
|   \\  /    A nd           | Website:  www.openfoam.com                      |
|    \\/     M anipulation  |                                                 |
\*---------------------------------------------------------------------------*/
FoamFile
{
    version     2.0;
    format      ascii;
    arch        "LSB;label=32;scalar=64";
    class       extendedFeatureEdgeMesh;
    location    "constant/extendedFeatureEdgeMesh";
    object      floor.extendedFeatureEdgeMesh;
}
// * * * * * * * * * * * * * * * * * * * * * * * * * * * * * * * * * * * * * //

// points
8((0 0 -1) (40 0 -1) (40 0 0) (0 0 0) (40 40 -1) (40 40 0) (0 40 -1) (0 40 0))
// edges

12
(
(1 2)
(0 1)
(3 0)
(2 3)
(4 5)
(1 4)
(5 2)
(6 7)
(4 6)
(7 5)
(6 0)
(3 7)
)

// concaveStart mixedStart nonFeatureStart
8 8 8
// internalStart flatStart openStart multipleStart
12 12 12 12
// normals

12
(
(0 -1 0)
(1 0 0)
(0 0 -1)
(0 -1 0)
(-1 0 0)
(0 0 1)
(1 0 0)
(0 1 -0)
(0 0 -1)
(-0 0 1)
(0 1 0)
(-1 0 0)
)

// normal volume types

12
(
0
0
0
0
0
0
0
0
0
0
0
0
)

// normalDirections

12
(
2(1 -1)
2(1 -1)
2(1 -1)
2(1 -1)
2(1 -1)
2(1 -1)
2(1 -1)
2(1 -1)
2(1 -1)
2(1 -1)
2(1 -1)
2(1 -1)
)

// edgeNormals

12
(
2(0 1)
2(0 2)
2(3 4)
2(3 5)
2(6 7)
2(6 8)
2(1 9)
2(10 11)
2(10 8)
2(7 9)
2(4 2)
2(11 5)
)

// featurePointNormals

8
(
3(0 2 4)
3(0 1 2)
3(0 1 5)
3(3 4 5)
3(6 7 8)
3(6 7 9)
3(10 11 8)
3(10 11 9)
)

// featurePointEdges

8
(
3(2 10 1)
3(0 5 1)
3(3 6 0)
3(2 11 3)
3(4 8 5)
3(6 9 4)
3(7 10 8)
3(9 11 7)
)

// regionEdges
0()


// ************************************************************************* //
