/*--------------------------------*- C++ -*----------------------------------*\
| =========                 |                                                 |
| \\      /  F ield         | OpenFOAM: The Open Source CFD Toolbox           |
|  \\    /   O peration     | Version:  2306                                  |
|   \\  /    A nd           | Website:  www.openfoam.com                      |
|    \\/     M anipulation  |                                                 |
\*---------------------------------------------------------------------------*/
FoamFile
{
    version     2.0;
    format      ascii;
    arch        "LSB;label=32;scalar=64";
    class       extendedFeatureEdgeMesh;
    location    "constant/extendedFeatureEdgeMesh";
    object      glasswall.extendedFeatureEdgeMesh;
}
// * * * * * * * * * * * * * * * * * * * * * * * * * * * * * * * * * * * * * //

// points
4((55.55586 8.357841 46.42857) (10.55586 8.357841 46.42857) (10.55586 53.35784 46.42857) (55.55586 53.35784 46.42857))
// edges
4((0 1) (1 2) (2 3) (3 0))
// concaveStart mixedStart nonFeatureStart
0 0 4
// internalStart flatStart openStart multipleStart
0 0 0 4
// normals
2{(0 0 -1)}
// normal volume types

2
(
0
0
)

// normalDirections

4
(
1(1)
1(1)
1(1)
1(1)
)

// edgeNormals

4
(
1(0)
1(0)
1(1)
1(1)
)

// featurePointNormals

4
(
1(0)
1(0)
1(0)
1(1)
)

// featurePointEdges

4
(
2(0 3)
2(0 1)
2(1 2)
2(2 3)
)

// regionEdges
4(0 1 2 3)


// ************************************************************************* //
