/*--------------------------------*- C++ -*----------------------------------*\
| =========                 |                                                 |
| \\      /  F ield         | OpenFOAM: The Open Source CFD Toolbox           |
|  \\    /   O peration     | Version:  2306                                  |
|   \\  /    A nd           | Website:  www.openfoam.com                      |
|    \\/     M anipulation  |                                                 |
\*---------------------------------------------------------------------------*/
FoamFile
{
    version     2.0;
    format      ascii;
    arch        "LSB;label=32;scalar=64";
    class       extendedFeatureEdgeMesh;
    location    "constant/extendedFeatureEdgeMesh";
    object      solid.extendedFeatureEdgeMesh;
}
// * * * * * * * * * * * * * * * * * * * * * * * * * * * * * * * * * * * * * //

// points

1224
(
(10.05586 53.85784 46.42857)
(10.05586 7.85784 46.42857)
(56.05586 53.85784 46.42857)
(56.05586 7.85784 46.42857)
(56.05586 7.85784 0)
(56.05586 53.85784 0)
(10.05586 7.85784 0)
(10.05586 53.85784 0)
(10.55586 53.35784 35)
(10.55586 8.357841 35)
(55.55586 53.35784 35)
(55.55586 8.357841 35)
(10.55586 53.35784 35.5)
(10.55586 8.357841 35.5)
(55.55586 53.35784 35.5)
(55.55586 8.357841 35.5)
(10.55586 53.35784 25)
(10.55586 8.357841 25)
(55.55586 53.35784 25)
(55.55586 8.357841 25)
(10.55586 53.35784 25.5)
(10.55586 8.357841 25.5)
(55.55586 53.35784 25.5)
(55.55586 8.357841 25.5)
(10.55586 53.35784 10)
(10.55586 8.357841 10)
(55.55586 53.35784 10)
(55.55586 8.357841 10)
(10.55586 53.35784 10.5)
(10.55586 8.357841 10.5)
(55.55586 53.35784 10.5)
(55.55586 8.357841 10.5)
(12.55586 51.35784 35)
(12.55586 10.35784 35)
(53.55586 51.35784 35)
(53.55586 10.35784 35)
(12.55586 51.35784 35.5)
(53.55586 51.35784 35.5)
(12.55586 10.35784 35.5)
(53.55586 10.35784 35.5)
(12.55586 51.35784 25)
(12.55586 10.35784 25)
(53.55586 51.35784 25)
(53.55586 10.35784 25)
(12.55586 51.35784 25.5)
(53.55586 51.35784 25.5)
(12.55586 10.35784 25.5)
(53.55586 10.35784 25.5)
(12.55586 51.35784 10)
(12.55586 10.35784 10)
(53.55586 51.35784 10)
(53.55586 10.35784 10)
(12.55586 51.35784 10.5)
(53.55586 51.35784 10.5)
(12.55586 10.35784 10.5)
(53.55586 10.35784 10.5)
(10.55586 53.35784 46.42857)
(10.55586 8.357841 46.42857)
(55.55586 53.35784 46.42857)
(55.55586 8.357841 46.42857)
(56.05586 12.85784 37)
(56.05586 12.85784 36)
(56.05586 15.85784 37)
(56.05586 15.85784 36)
(56.05586 17.85784 37)
(56.05586 12.85784 27)
(56.05586 15.85784 27)
(56.05586 17.85784 27)
(56.05586 12.85784 26)
(56.05586 17.85784 36)
(56.05586 20.85784 37)
(56.05586 20.85784 36)
(56.05586 22.85784 37)
(56.05586 25.85784 36)
(56.05586 22.85784 36)
(56.05586 20.85784 27)
(56.05586 22.85784 27)
(56.05586 15.85784 26)
(56.05586 12.85784 12)
(56.05586 15.85784 12)
(56.05586 12.85784 11)
(56.05586 15.85784 11)
(56.05586 17.85784 26)
(56.05586 20.85784 26)
(56.05586 17.85784 12)
(56.05586 20.85784 12)
(56.05586 22.85784 26)
(56.05586 22.85784 12)
(56.05586 17.85784 11)
(56.05586 20.85784 11)
(56.05586 22.85784 11)
(56.05586 25.85784 37)
(56.05586 27.85784 37)
(56.05586 27.85784 36)
(56.05586 32.85784 37)
(56.05586 30.85784 37)
(56.05586 30.85784 36)
(56.05586 25.85784 27)
(56.05586 27.85784 27)
(56.05586 25.85784 26)
(56.05586 27.85784 26)
(56.05586 32.85784 36)
(56.05586 30.85784 27)
(56.05586 32.85784 27)
(56.05586 35.85784 37)
(56.05586 35.85784 36)
(56.05586 35.85784 27)
(56.05586 25.85784 12)
(56.05586 27.85784 12)
(56.05586 30.85784 26)
(56.05586 32.85784 26)
(56.05586 30.85784 12)
(56.05586 32.85784 12)
(56.05586 25.85784 11)
(56.05586 27.85784 11)
(56.05586 30.85784 11)
(56.05586 32.85784 11)
(56.05586 35.85784 26)
(56.05586 35.85784 12)
(56.05586 35.85784 11)
(10.55586 53.35784 0)
(55.55586 53.35784 0)
(10.55586 8.357841 0)
(55.55586 8.357841 0)
(55.55586 35.85784 12)
(55.55586 32.85784 11)
(55.55586 35.85784 11)
(55.55586 32.85784 12)
(55.55586 30.85784 12)
(55.55586 27.85784 12)
(55.55586 30.85784 11)
(55.55586 25.85784 11)
(55.55586 27.85784 11)
(55.55586 25.85784 12)
(55.55586 22.85784 12)
(55.55586 17.85784 12)
(55.55586 20.85784 12)
(55.55586 15.85784 12)
(55.55586 22.85784 11)
(55.55586 20.85784 11)
(55.55586 17.85784 11)
(55.55586 15.85784 11)
(55.55586 12.85784 12)
(55.55586 12.85784 11)
(55.55586 35.85784 27)
(55.55586 32.85784 27)
(55.55586 30.85784 27)
(55.55586 35.85784 26)
(55.55586 27.85784 27)
(55.55586 25.85784 27)
(55.55586 30.85784 26)
(55.55586 32.85784 26)
(55.55586 27.85784 26)
(55.55586 25.85784 26)
(55.55586 22.85784 27)
(55.55586 20.85784 27)
(55.55586 17.85784 27)
(55.55586 15.85784 27)
(55.55586 12.85784 27)
(55.55586 22.85784 26)
(55.55586 20.85784 26)
(55.55586 17.85784 26)
(55.55586 15.85784 26)
(55.55586 12.85784 26)
(55.55586 32.85784 37)
(55.55586 30.85784 37)
(55.55586 35.85784 37)
(55.55586 35.85784 36)
(55.55586 27.85784 37)
(55.55586 32.85784 36)
(55.55586 30.85784 36)
(55.55586 27.85784 36)
(55.55586 25.85784 37)
(55.55586 22.85784 37)
(55.55586 20.85784 37)
(55.55586 17.85784 37)
(55.55586 15.85784 37)
(55.55586 12.85784 37)
(55.55586 25.85784 36)
(55.55586 22.85784 36)
(55.55586 20.85784 36)
(55.55586 17.85784 36)
(55.55586 15.85784 36)
(55.55586 12.85784 36)
(12.55586 49.19994 35)
(12.55586 47.04205 35)
(12.55586 44.88416 35)
(12.55586 42.72626 35)
(12.55586 40.56837 35)
(12.55586 38.41047 35)
(12.55586 36.25258 35)
(12.55586 34.09468 35)
(12.55586 31.93679 35)
(16.87165 51.35784 35)
(14.71375 51.35784 35)
(19.02954 51.35784 35)
(21.18744 51.35784 35)
(23.34534 51.35784 35)
(27.66112 51.35784 35)
(25.50323 51.35784 35)
(31.97691 51.35784 35)
(29.81902 51.35784 35)
(36.2927 51.35784 35)
(34.13481 51.35784 35)
(12.55586 29.77889 35)
(12.55586 27.621 35)
(12.55586 25.4631 35)
(12.55586 23.30521 35)
(12.55586 21.14731 35)
(12.55586 16.83152 35)
(12.55586 14.67363 35)
(12.55586 18.98942 35)
(12.55586 12.51573 35)
(21.18744 10.35784 35)
(23.34534 10.35784 35)
(19.02954 10.35784 35)
(25.50323 10.35784 35)
(29.81902 10.35784 35)
(31.97691 10.35784 35)
(27.66112 10.35784 35)
(34.13481 10.35784 35)
(14.71375 10.35784 35)
(16.87165 10.35784 35)
(36.2927 10.35784 35)
(40.60849 51.35784 35)
(38.4506 51.35784 35)
(44.92428 51.35784 35)
(42.76639 51.35784 35)
(47.08218 51.35784 35)
(51.39796 51.35784 35)
(49.24007 51.35784 35)
(53.55586 47.04205 35)
(53.55586 49.19994 35)
(53.55586 44.88416 35)
(53.55586 40.56837 35)
(53.55586 42.72626 35)
(53.55586 34.09468 35)
(53.55586 36.25258 35)
(53.55586 31.93679 35)
(53.55586 38.41047 35)
(53.55586 29.77889 35)
(47.08218 10.35784 35)
(49.24007 10.35784 35)
(53.55586 25.4631 35)
(53.55586 27.621 35)
(51.39796 10.35784 35)
(38.4506 10.35784 35)
(40.60849 10.35784 35)
(42.76639 10.35784 35)
(44.92428 10.35784 35)
(53.55586 21.14731 35)
(53.55586 23.30521 35)
(53.55586 18.98942 35)
(53.55586 16.83152 35)
(53.55586 12.51573 35)
(53.55586 14.67363 35)
(14.71375 51.35784 35.5)
(19.02954 51.35784 35.5)
(16.87165 51.35784 35.5)
(21.18744 51.35784 35.5)
(25.50323 51.35784 35.5)
(23.34534 51.35784 35.5)
(29.81902 51.35784 35.5)
(27.66112 51.35784 35.5)
(31.97691 51.35784 35.5)
(34.13481 51.35784 35.5)
(36.2927 51.35784 35.5)
(40.60849 51.35784 35.5)
(38.4506 51.35784 35.5)
(42.76639 51.35784 35.5)
(47.08218 51.35784 35.5)
(44.92428 51.35784 35.5)
(51.39796 51.35784 35.5)
(49.24007 51.35784 35.5)
(12.55586 12.51573 35.5)
(12.55586 16.83152 35.5)
(12.55586 14.67363 35.5)
(12.55586 18.98942 35.5)
(12.55586 23.30521 35.5)
(12.55586 21.14731 35.5)
(12.55586 27.621 35.5)
(12.55586 25.4631 35.5)
(12.55586 29.77889 35.5)
(12.55586 31.93679 35.5)
(12.55586 34.09468 35.5)
(12.55586 38.41047 35.5)
(12.55586 36.25258 35.5)
(12.55586 40.56837 35.5)
(12.55586 44.88416 35.5)
(12.55586 42.72626 35.5)
(12.55586 49.19994 35.5)
(12.55586 47.04205 35.5)
(51.39796 10.35784 35.5)
(47.08218 10.35784 35.5)
(49.24007 10.35784 35.5)
(44.92428 10.35784 35.5)
(40.60849 10.35784 35.5)
(42.76639 10.35784 35.5)
(36.2927 10.35784 35.5)
(38.4506 10.35784 35.5)
(34.13481 10.35784 35.5)
(31.97691 10.35784 35.5)
(29.81902 10.35784 35.5)
(25.50323 10.35784 35.5)
(27.66112 10.35784 35.5)
(23.34534 10.35784 35.5)
(19.02954 10.35784 35.5)
(21.18744 10.35784 35.5)
(14.71375 10.35784 35.5)
(16.87165 10.35784 35.5)
(53.55586 49.19994 35.5)
(53.55586 44.88416 35.5)
(53.55586 47.04205 35.5)
(53.55586 42.72626 35.5)
(53.55586 38.41047 35.5)
(53.55586 40.56837 35.5)
(53.55586 34.09468 35.5)
(53.55586 36.25258 35.5)
(53.55586 31.93679 35.5)
(53.55586 29.77889 35.5)
(53.55586 27.621 35.5)
(53.55586 23.30521 35.5)
(53.55586 25.4631 35.5)
(53.55586 21.14731 35.5)
(53.55586 16.83152 35.5)
(53.55586 18.98942 35.5)
(53.55586 12.51573 35.5)
(53.55586 14.67363 35.5)
(12.55586 49.19994 25)
(12.55586 47.04205 25)
(12.55586 44.88416 25)
(12.55586 42.72626 25)
(12.55586 40.56837 25)
(12.55586 38.41047 25)
(12.55586 36.25258 25)
(12.55586 34.09468 25)
(12.55586 31.93679 25)
(16.87165 51.35784 25)
(14.71375 51.35784 25)
(19.02954 51.35784 25)
(21.18744 51.35784 25)
(23.34534 51.35784 25)
(27.66112 51.35784 25)
(25.50323 51.35784 25)
(31.97691 51.35784 25)
(29.81902 51.35784 25)
(36.2927 51.35784 25)
(34.13481 51.35784 25)
(12.55586 29.77889 25)
(12.55586 27.621 25)
(12.55586 25.4631 25)
(12.55586 23.30521 25)
(12.55586 21.14731 25)
(12.55586 16.83152 25)
(12.55586 14.67363 25)
(12.55586 18.98942 25)
(12.55586 12.51573 25)
(21.18744 10.35784 25)
(23.34534 10.35784 25)
(19.02954 10.35784 25)
(25.50323 10.35784 25)
(29.81902 10.35784 25)
(31.97691 10.35784 25)
(27.66112 10.35784 25)
(34.13481 10.35784 25)
(14.71375 10.35784 25)
(16.87165 10.35784 25)
(36.2927 10.35784 25)
(40.60849 51.35784 25)
(38.4506 51.35784 25)
(44.92428 51.35784 25)
(42.76639 51.35784 25)
(47.08218 51.35784 25)
(51.39796 51.35784 25)
(49.24007 51.35784 25)
(53.55586 47.04205 25)
(53.55586 49.19994 25)
(53.55586 44.88416 25)
(53.55586 40.56837 25)
(53.55586 42.72626 25)
(53.55586 34.09468 25)
(53.55586 36.25258 25)
(53.55586 31.93679 25)
(53.55586 38.41047 25)
(53.55586 29.77889 25)
(47.08218 10.35784 25)
(49.24007 10.35784 25)
(53.55586 25.4631 25)
(53.55586 27.621 25)
(51.39796 10.35784 25)
(38.4506 10.35784 25)
(40.60849 10.35784 25)
(42.76639 10.35784 25)
(44.92428 10.35784 25)
(53.55586 21.14731 25)
(53.55586 23.30521 25)
(53.55586 18.98942 25)
(53.55586 16.83152 25)
(53.55586 12.51573 25)
(53.55586 14.67363 25)
(14.71375 51.35784 25.5)
(19.02954 51.35784 25.5)
(16.87165 51.35784 25.5)
(21.18744 51.35784 25.5)
(25.50323 51.35784 25.5)
(23.34534 51.35784 25.5)
(29.81902 51.35784 25.5)
(27.66112 51.35784 25.5)
(31.97691 51.35784 25.5)
(34.13481 51.35784 25.5)
(36.2927 51.35784 25.5)
(40.60849 51.35784 25.5)
(38.4506 51.35784 25.5)
(42.76639 51.35784 25.5)
(47.08218 51.35784 25.5)
(44.92428 51.35784 25.5)
(51.39796 51.35784 25.5)
(49.24007 51.35784 25.5)
(12.55586 12.51573 25.5)
(12.55586 16.83152 25.5)
(12.55586 14.67363 25.5)
(12.55586 18.98942 25.5)
(12.55586 23.30521 25.5)
(12.55586 21.14731 25.5)
(12.55586 27.621 25.5)
(12.55586 25.4631 25.5)
(12.55586 29.77889 25.5)
(12.55586 31.93679 25.5)
(12.55586 34.09468 25.5)
(12.55586 38.41047 25.5)
(12.55586 36.25258 25.5)
(12.55586 40.56837 25.5)
(12.55586 44.88416 25.5)
(12.55586 42.72626 25.5)
(12.55586 49.19994 25.5)
(12.55586 47.04205 25.5)
(51.39796 10.35784 25.5)
(47.08218 10.35784 25.5)
(49.24007 10.35784 25.5)
(44.92428 10.35784 25.5)
(40.60849 10.35784 25.5)
(42.76639 10.35784 25.5)
(36.2927 10.35784 25.5)
(38.4506 10.35784 25.5)
(34.13481 10.35784 25.5)
(31.97691 10.35784 25.5)
(29.81902 10.35784 25.5)
(25.50323 10.35784 25.5)
(27.66112 10.35784 25.5)
(23.34534 10.35784 25.5)
(19.02954 10.35784 25.5)
(21.18744 10.35784 25.5)
(14.71375 10.35784 25.5)
(16.87165 10.35784 25.5)
(53.55586 49.19994 25.5)
(53.55586 44.88416 25.5)
(53.55586 47.04205 25.5)
(53.55586 42.72626 25.5)
(53.55586 38.41047 25.5)
(53.55586 40.56837 25.5)
(53.55586 34.09468 25.5)
(53.55586 36.25258 25.5)
(53.55586 31.93679 25.5)
(53.55586 29.77889 25.5)
(53.55586 27.621 25.5)
(53.55586 23.30521 25.5)
(53.55586 25.4631 25.5)
(53.55586 21.14731 25.5)
(53.55586 16.83152 25.5)
(53.55586 18.98942 25.5)
(53.55586 12.51573 25.5)
(53.55586 14.67363 25.5)
(12.55586 49.19994 10)
(12.55586 47.04205 10)
(12.55586 44.88416 10)
(12.55586 42.72626 10)
(12.55586 38.41047 10)
(12.55586 36.25258 10)
(12.55586 40.56837 10)
(12.55586 34.09468 10)
(12.55586 31.93679 10)
(16.87165 51.35784 10)
(14.71375 51.35784 10)
(19.02954 51.35784 10)
(21.18744 51.35784 10)
(23.34534 51.35784 10)
(27.66112 51.35784 10)
(25.50323 51.35784 10)
(29.81902 51.35784 10)
(31.97691 51.35784 10)
(12.55586 29.77889 10)
(12.55586 27.621 10)
(12.55586 25.4631 10)
(12.55586 23.30521 10)
(12.55586 21.14731 10)
(12.55586 16.83152 10)
(12.55586 14.67363 10)
(12.55586 12.51573 10)
(12.55586 18.98942 10)
(21.18744 10.35784 10)
(23.34534 10.35784 10)
(27.66112 10.35784 10)
(29.81902 10.35784 10)
(25.50323 10.35784 10)
(14.71375 10.35784 10)
(16.87165 10.35784 10)
(19.02954 10.35784 10)
(31.97691 10.35784 10)
(34.13481 51.35784 10)
(36.2927 51.35784 10)
(38.4506 51.35784 10)
(40.60849 51.35784 10)
(42.76639 51.35784 10)
(44.92428 51.35784 10)
(47.08218 51.35784 10)
(51.39796 51.35784 10)
(49.24007 51.35784 10)
(53.55586 47.04205 10)
(53.55586 49.19994 10)
(53.55586 44.88416 10)
(53.55586 42.72626 10)
(53.55586 38.41047 10)
(53.55586 40.56837 10)
(53.55586 34.09468 10)
(53.55586 36.25258 10)
(53.55586 29.77889 10)
(53.55586 31.93679 10)
(40.60849 10.35784 10)
(42.76639 10.35784 10)
(38.4506 10.35784 10)
(47.08218 10.35784 10)
(49.24007 10.35784 10)
(44.92428 10.35784 10)
(51.39796 10.35784 10)
(34.13481 10.35784 10)
(36.2927 10.35784 10)
(53.55586 25.4631 10)
(53.55586 27.621 10)
(53.55586 23.30521 10)
(53.55586 18.98942 10)
(53.55586 21.14731 10)
(53.55586 16.83152 10)
(53.55586 12.51573 10)
(53.55586 14.67363 10)
(14.71375 51.35784 10.5)
(19.02954 51.35784 10.5)
(16.87165 51.35784 10.5)
(21.18744 51.35784 10.5)
(25.50323 51.35784 10.5)
(23.34534 51.35784 10.5)
(29.81902 51.35784 10.5)
(27.66112 51.35784 10.5)
(31.97691 51.35784 10.5)
(34.13481 51.35784 10.5)
(36.2927 51.35784 10.5)
(40.60849 51.35784 10.5)
(38.4506 51.35784 10.5)
(42.76639 51.35784 10.5)
(47.08218 51.35784 10.5)
(44.92428 51.35784 10.5)
(51.39796 51.35784 10.5)
(49.24007 51.35784 10.5)
(12.55586 12.51573 10.5)
(12.55586 16.83152 10.5)
(12.55586 14.67363 10.5)
(12.55586 18.98942 10.5)
(12.55586 23.30521 10.5)
(12.55586 21.14731 10.5)
(12.55586 27.621 10.5)
(12.55586 25.4631 10.5)
(12.55586 29.77889 10.5)
(12.55586 31.93679 10.5)
(12.55586 34.09468 10.5)
(12.55586 38.41047 10.5)
(12.55586 36.25258 10.5)
(12.55586 40.56837 10.5)
(12.55586 44.88416 10.5)
(12.55586 42.72626 10.5)
(12.55586 49.19994 10.5)
(12.55586 47.04205 10.5)
(51.39796 10.35784 10.5)
(47.08218 10.35784 10.5)
(49.24007 10.35784 10.5)
(44.92428 10.35784 10.5)
(40.60849 10.35784 10.5)
(42.76639 10.35784 10.5)
(36.2927 10.35784 10.5)
(38.4506 10.35784 10.5)
(34.13481 10.35784 10.5)
(31.97691 10.35784 10.5)
(29.81902 10.35784 10.5)
(25.50323 10.35784 10.5)
(27.66112 10.35784 10.5)
(23.34534 10.35784 10.5)
(19.02954 10.35784 10.5)
(21.18744 10.35784 10.5)
(14.71375 10.35784 10.5)
(16.87165 10.35784 10.5)
(53.55586 49.19994 10.5)
(53.55586 44.88416 10.5)
(53.55586 47.04205 10.5)
(53.55586 42.72626 10.5)
(53.55586 38.41047 10.5)
(53.55586 40.56837 10.5)
(53.55586 34.09468 10.5)
(53.55586 36.25258 10.5)
(53.55586 31.93679 10.5)
(53.55586 29.77889 10.5)
(53.55586 27.621 10.5)
(53.55586 23.30521 10.5)
(53.55586 25.4631 10.5)
(53.55586 21.14731 10.5)
(53.55586 16.83152 10.5)
(53.55586 18.98942 10.5)
(53.55586 12.51573 10.5)
(53.55586 14.67363 10.5)
(10.55586 48.85784 46.42857)
(10.05586 49.25784 46.42857)
(10.55586 44.35784 46.42857)
(10.05586 44.65784 46.42857)
(15.05586 53.35784 46.42857)
(14.65586 53.85784 46.42857)
(10.55586 35.35784 46.42857)
(10.55586 39.85784 46.42857)
(10.05586 40.05784 46.42857)
(10.05586 35.45784 46.42857)
(10.55586 30.85784 46.42857)
(10.05586 30.85784 46.42857)
(19.55586 53.35784 46.42857)
(19.25586 53.85784 46.42857)
(24.05586 53.35784 46.42857)
(23.85586 53.85784 46.42857)
(28.55586 53.35784 46.42857)
(33.05586 53.35784 46.42857)
(33.05586 53.85784 46.42857)
(28.45586 53.85784 46.42857)
(37.55586 53.35784 46.42857)
(37.65586 53.85784 46.42857)
(10.55586 21.85784 46.42857)
(10.55586 26.35784 46.42857)
(10.05586 26.25784 46.42857)
(10.05586 21.65784 46.42857)
(10.05586 17.05784 46.42857)
(10.55586 17.35784 46.42857)
(10.55586 12.85784 46.42857)
(10.05586 12.45784 46.42857)
(15.05586 8.357841 46.42857)
(14.65586 7.85784 46.42857)
(19.25586 7.85784 46.42857)
(19.55586 8.357841 46.42857)
(23.85586 7.85784 46.42857)
(24.05586 8.357841 46.42857)
(28.45586 7.85784 46.42857)
(33.05586 7.85784 46.42857)
(33.05586 8.357841 46.42857)
(28.55586 8.357841 46.42857)
(37.65586 7.85784 46.42857)
(37.55586 8.357841 46.42857)
(42.25586 7.85784 46.42857)
(42.05586 8.357841 46.42857)
(42.25586 53.85784 46.42857)
(42.05586 53.35784 46.42857)
(46.85586 53.85784 46.42857)
(46.55586 53.35784 46.42857)
(51.45586 53.85784 46.42857)
(51.05586 53.35784 46.42857)
(56.05586 50.57212 46.42857)
(55.55586 50.85784 46.42857)
(55.55586 48.35784 46.42857)
(55.55586 45.85784 46.42857)
(55.55586 43.35784 46.42857)
(56.05586 47.28641 46.42857)
(56.05586 44.0007 46.42857)
(55.55586 40.85784 46.42857)
(56.05586 40.71498 46.42857)
(56.05586 37.42927 46.42857)
(55.55586 38.35784 46.42857)
(55.55586 35.85784 46.42857)
(55.55586 33.35784 46.42857)
(56.05586 30.85784 46.42857)
(56.05586 34.14355 46.42857)
(55.55586 30.85784 46.42857)
(55.55586 28.35784 46.42857)
(55.55586 25.85784 46.42857)
(56.05586 21.0007 46.42857)
(56.05586 24.28641 46.42857)
(55.55586 23.35784 46.42857)
(55.55586 20.85784 46.42857)
(56.05586 17.71498 46.42857)
(55.55586 18.35784 46.42857)
(46.85586 7.85784 46.42857)
(46.55586 8.357841 46.42857)
(51.05586 8.357841 46.42857)
(51.45586 7.85784 46.42857)
(56.05586 27.57213 46.42857)
(55.55586 15.85784 46.42857)
(56.05586 14.42927 46.42857)
(56.05586 11.14355 46.42857)
(55.55586 13.35784 46.42857)
(55.55586 10.85784 46.42857)
(56.05586 7.85784 43.11224)
(56.05586 7.85784 39.79592)
(56.05586 14.35784 37)
(56.05586 7.85784 36.47959)
(56.05586 12.85784 36.5)
(56.05586 15.85784 36.5)
(56.05586 14.35784 36)
(56.05586 17.85784 36.5)
(56.05586 7.85784 33.16327)
(56.05586 7.85784 29.84694)
(56.05586 7.85784 26.53061)
(56.05586 12.85784 26.5)
(56.05586 14.35784 27)
(56.05586 15.85784 26.5)
(56.05586 17.85784 26.5)
(56.05586 19.35784 37)
(56.05586 19.35784 36)
(56.05586 20.85784 36.5)
(56.05586 22.85784 36.5)
(56.05586 23.85784 37)
(56.05586 24.85784 37)
(56.05586 24.35784 36)
(56.05586 19.85784 27)
(56.05586 18.85784 27)
(56.05586 20.85784 26.5)
(56.05586 22.85784 26.5)
(56.05586 23.85784 27)
(56.05586 24.85784 27)
(56.05586 7.85784 23.21428)
(56.05586 7.85784 19.89796)
(56.05586 7.85784 16.58163)
(56.05586 7.85784 13.26531)
(56.05586 13.85784 26)
(56.05586 14.85784 26)
(56.05586 14.35784 12)
(56.05586 7.85784 9.948979)
(56.05586 7.85784 6.632653)
(56.05586 12.85784 11.5)
(56.05586 7.85784 3.316327)
(56.05586 11.14355 0)
(56.05586 14.42927 0)
(56.05586 15.85784 11.5)
(56.05586 14.35784 11)
(56.05586 17.71498 0)
(56.05586 18.85784 26)
(56.05586 19.85784 26)
(56.05586 19.35784 12)
(56.05586 17.85784 11.5)
(56.05586 23.85784 26)
(56.05586 24.85784 26)
(56.05586 22.85784 11.5)
(56.05586 24.35784 12)
(56.05586 20.85784 11.5)
(56.05586 19.35784 11)
(56.05586 21.0007 0)
(56.05586 24.35784 11)
(56.05586 24.28641 0)
(56.05586 25.85784 36.5)
(56.05586 27.85784 36.5)
(56.05586 29.35784 37)
(56.05586 29.35784 36)
(56.05586 32.85784 36.5)
(56.05586 25.85784 26.5)
(56.05586 27.85784 26.5)
(56.05586 29.35784 27)
(56.05586 32.85784 26.5)
(56.05586 33.85784 37)
(56.05586 34.85784 37)
(56.05586 35.85784 36.5)
(56.05586 53.85784 43.11224)
(56.05586 53.85784 36.47959)
(56.05586 53.85784 39.79592)
(56.05586 33.85784 36)
(56.05586 34.85784 36)
(56.05586 33.85784 27)
(56.05586 34.85784 27)
(56.05586 53.85784 33.16327)
(56.05586 53.85784 26.53061)
(56.05586 53.85784 29.84694)
(56.05586 35.85784 26.5)
(56.05586 53.85784 23.21428)
(56.05586 29.35784 12)
(56.05586 29.35784 26)
(56.05586 30.85784 11.5)
(56.05586 25.85784 11.5)
(56.05586 27.85784 11.5)
(56.05586 29.35784 11)
(56.05586 27.57213 0)
(56.05586 32.85784 11.5)
(56.05586 30.85784 0)
(56.05586 34.14355 0)
(56.05586 33.85784 26)
(56.05586 34.85784 26)
(56.05586 34.35784 12)
(56.05586 53.85784 19.89796)
(56.05586 53.85784 16.58163)
(56.05586 53.85784 13.26531)
(56.05586 53.85784 9.948979)
(56.05586 35.85784 11.5)
(56.05586 34.35784 11)
(56.05586 37.42927 0)
(56.05586 40.71498 0)
(56.05586 44.0007 0)
(56.05586 53.85784 6.632653)
(56.05586 47.28641 0)
(56.05586 53.85784 3.316327)
(56.05586 50.57212 0)
(10.05586 7.85784 23.21428)
(23.85586 7.85784 0)
(28.45586 7.85784 0)
(14.65586 7.85784 0)
(19.25586 7.85784 0)
(33.05586 7.85784 0)
(37.65586 7.85784 0)
(42.25586 7.85784 0)
(46.85586 7.85784 0)
(51.45586 7.85784 0)
(10.05586 53.85784 23.21428)
(10.05586 49.25784 0)
(10.05586 44.65784 0)
(10.05586 40.05784 0)
(10.05586 35.45784 0)
(10.05586 30.85784 0)
(10.05586 26.25784 0)
(10.05586 21.65784 0)
(10.05586 17.05784 0)
(10.05586 12.45784 0)
(51.45586 53.85784 0)
(46.85586 53.85784 0)
(42.25586 53.85784 0)
(37.65586 53.85784 0)
(33.05586 53.85784 0)
(28.45586 53.85784 0)
(23.85586 53.85784 0)
(19.25586 53.85784 0)
(14.65586 53.85784 0)
(15.05586 53.35784 0)
(19.55586 53.35784 0)
(24.05586 53.35784 0)
(28.55586 53.35784 0)
(33.05586 53.35784 0)
(37.55586 53.35784 0)
(42.05586 53.35784 0)
(46.55586 53.35784 0)
(51.05586 53.35784 0)
(10.55586 12.85784 0)
(10.55586 17.35784 0)
(10.55586 21.85784 0)
(10.55586 26.35784 0)
(10.55586 30.85784 0)
(10.55586 35.35784 0)
(10.55586 39.85784 0)
(10.55586 44.35784 0)
(10.55586 48.85784 0)
(51.05586 8.357841 0)
(46.55586 8.357841 0)
(42.05586 8.357841 0)
(37.55586 8.357841 0)
(33.05586 8.357841 0)
(28.55586 8.357841 0)
(24.05586 8.357841 0)
(19.55586 8.357841 0)
(15.05586 8.357841 0)
(55.55586 48.85784 0)
(55.55586 44.35784 0)
(55.55586 39.85784 0)
(55.55586 35.35784 0)
(55.55586 30.85784 0)
(55.55586 26.35784 0)
(55.55586 21.85784 0)
(55.55586 17.35784 0)
(55.55586 12.85784 0)
(55.55586 35.85784 11.5)
(55.55586 34.35784 12)
(55.55586 34.35784 11)
(55.55586 32.85784 11.5)
(55.55586 30.85784 11.5)
(55.55586 29.35784 12)
(55.55586 29.35784 11)
(55.55586 25.85784 11.5)
(55.55586 27.85784 11.5)
(55.55586 24.35784 12)
(55.55586 19.35784 12)
(55.55586 14.35784 12)
(55.55586 22.85784 11.5)
(55.55586 20.85784 11.5)
(55.55586 24.35784 11)
(55.55586 19.35784 11)
(55.55586 15.85784 11.5)
(55.55586 17.85784 11.5)
(55.55586 12.85784 11.5)
(55.55586 14.35784 11)
(55.55586 34.85784 27)
(55.55586 33.85784 27)
(55.55586 35.85784 26.5)
(55.55586 34.85784 26)
(55.55586 30.85784 26.5)
(55.55586 32.85784 26.5)
(55.55586 29.35784 27)
(55.55586 25.85784 26.5)
(55.55586 27.85784 26.5)
(55.55586 33.85784 26)
(55.55586 29.35784 26)
(55.55586 24.85784 27)
(55.55586 23.85784 27)
(55.55586 19.85784 27)
(55.55586 18.85784 27)
(55.55586 14.35784 27)
(55.55586 22.85784 26.5)
(55.55586 20.85784 26.5)
(55.55586 23.85784 26)
(55.55586 24.85784 26)
(55.55586 18.85784 26)
(55.55586 19.85784 26)
(55.55586 15.85784 26.5)
(55.55586 17.85784 26.5)
(55.55586 12.85784 26.5)
(55.55586 14.85784 26)
(55.55586 13.85784 26)
(55.55586 34.85784 37)
(55.55586 34.85784 36)
(55.55586 35.85784 36.5)
(55.55586 32.85784 36.5)
(55.55586 30.85784 36.5)
(55.55586 33.85784 37)
(55.55586 29.35784 37)
(55.55586 33.85784 36)
(55.55586 29.35784 36)
(55.55586 25.85784 36.5)
(55.55586 27.85784 36.5)
(55.55586 24.85784 37)
(55.55586 23.85784 37)
(55.55586 19.35784 37)
(55.55586 14.35784 37)
(55.55586 22.85784 36.5)
(55.55586 20.85784 36.5)
(55.55586 24.35784 36)
(55.55586 19.35784 36)
(55.55586 15.85784 36.5)
(55.55586 17.85784 36.5)
(55.55586 12.85784 36.5)
(55.55586 14.35784 36)
(56.05586 30.85784 26.5)
(56.05586 30.85784 36.5)
(10.55586 48.85784 35)
(10.55586 44.35784 35)
(15.05586 53.35784 35)
(10.55586 35.35784 35)
(10.55586 39.85784 35)
(10.55586 30.85784 35)
(19.55586 53.35784 35)
(24.05586 53.35784 35)
(28.55586 53.35784 35)
(33.05586 53.35784 35)
(37.55586 53.35784 35)
(10.55586 26.35784 35)
(10.55586 21.85784 35)
(10.55586 12.85784 35)
(10.55586 17.35784 35)
(15.05586 8.357841 35)
(19.55586 8.357841 35)
(28.55586 8.357841 35)
(24.05586 8.357841 35)
(33.05586 8.357841 35)
(42.05586 53.35784 35)
(46.55586 53.35784 35)
(51.05586 53.35784 35)
(55.55586 50.85784 35)
(55.55586 48.35784 35)
(55.55586 45.85784 35)
(55.55586 43.35784 35)
(55.55586 40.85784 35)
(55.55586 38.35784 35)
(55.55586 35.85784 35)
(55.55586 33.35784 35)
(55.55586 30.85784 35)
(37.55586 8.357841 35)
(42.05586 8.357841 35)
(46.55586 8.357841 35)
(51.05586 8.357841 35)
(55.55586 28.35784 35)
(55.55586 25.85784 35)
(55.55586 23.35784 35)
(55.55586 20.85784 35)
(55.55586 18.35784 35)
(55.55586 15.85784 35)
(55.55586 13.35784 35)
(55.55586 10.85784 35)
(10.55586 48.85784 35.5)
(10.55586 44.35784 35.5)
(15.05586 53.35784 35.5)
(10.55586 39.85784 35.5)
(10.55586 35.35784 35.5)
(10.55586 30.85784 35.5)
(19.55586 53.35784 35.5)
(28.55586 53.35784 35.5)
(24.05586 53.35784 35.5)
(33.05586 53.35784 35.5)
(37.55586 53.35784 35.5)
(10.55586 26.35784 35.5)
(10.55586 21.85784 35.5)
(10.55586 17.35784 35.5)
(10.55586 12.85784 35.5)
(15.05586 8.357841 35.5)
(19.55586 8.357841 35.5)
(24.05586 8.357841 35.5)
(28.55586 8.357841 35.5)
(33.05586 8.357841 35.5)
(42.05586 53.35784 35.5)
(51.05586 53.35784 35.5)
(46.55586 53.35784 35.5)
(55.55586 48.35784 35.5)
(55.55586 50.85784 35.5)
(55.55586 45.85784 35.5)
(55.55586 43.35784 35.5)
(55.55586 40.85784 35.5)
(55.55586 38.35784 35.5)
(55.55586 35.85784 35.5)
(55.55586 30.85784 35.5)
(55.55586 33.35784 35.5)
(37.55586 8.357841 35.5)
(42.05586 8.357841 35.5)
(46.55586 8.357841 35.5)
(51.05586 8.357841 35.5)
(55.55586 25.85784 35.5)
(55.55586 28.35784 35.5)
(55.55586 23.35784 35.5)
(55.55586 18.35784 35.5)
(55.55586 20.85784 35.5)
(55.55586 13.35784 35.5)
(55.55586 15.85784 35.5)
(55.55586 10.85784 35.5)
(10.55586 48.85784 25)
(10.55586 44.35784 25)
(15.05586 53.35784 25)
(10.55586 35.35784 25)
(10.55586 39.85784 25)
(10.55586 30.85784 25)
(19.55586 53.35784 25)
(24.05586 53.35784 25)
(28.55586 53.35784 25)
(33.05586 53.35784 25)
(37.55586 53.35784 25)
(10.55586 26.35784 25)
(10.55586 21.85784 25)
(10.55586 12.85784 25)
(10.55586 17.35784 25)
(15.05586 8.357841 25)
(19.55586 8.357841 25)
(28.55586 8.357841 25)
(24.05586 8.357841 25)
(33.05586 8.357841 25)
(42.05586 53.35784 25)
(46.55586 53.35784 25)
(51.05586 53.35784 25)
(55.55586 50.85784 25)
(55.55586 48.35784 25)
(55.55586 45.85784 25)
(55.55586 43.35784 25)
(55.55586 40.85784 25)
(55.55586 38.35784 25)
(55.55586 35.85784 25)
(55.55586 33.35784 25)
(55.55586 30.85784 25)
(37.55586 8.357841 25)
(42.05586 8.357841 25)
(46.55586 8.357841 25)
(51.05586 8.357841 25)
(55.55586 28.35784 25)
(55.55586 25.85784 25)
(55.55586 23.35784 25)
(55.55586 20.85784 25)
(55.55586 18.35784 25)
(55.55586 15.85784 25)
(55.55586 13.35784 25)
(55.55586 10.85784 25)
(10.55586 48.85784 25.5)
(10.55586 44.35784 25.5)
(15.05586 53.35784 25.5)
(10.55586 39.85784 25.5)
(10.55586 35.35784 25.5)
(10.55586 30.85784 25.5)
(19.55586 53.35784 25.5)
(28.55586 53.35784 25.5)
(24.05586 53.35784 25.5)
(33.05586 53.35784 25.5)
(37.55586 53.35784 25.5)
(10.55586 26.35784 25.5)
(10.55586 21.85784 25.5)
(10.55586 17.35784 25.5)
(10.55586 12.85784 25.5)
(15.05586 8.357841 25.5)
(19.55586 8.357841 25.5)
(24.05586 8.357841 25.5)
(28.55586 8.357841 25.5)
(33.05586 8.357841 25.5)
(42.05586 53.35784 25.5)
(51.05586 53.35784 25.5)
(46.55586 53.35784 25.5)
(55.55586 48.35784 25.5)
(55.55586 50.85784 25.5)
(55.55586 45.85784 25.5)
(55.55586 43.35784 25.5)
(55.55586 40.85784 25.5)
(55.55586 38.35784 25.5)
(55.55586 35.85784 25.5)
(55.55586 30.85784 25.5)
(55.55586 33.35784 25.5)
(37.55586 8.357841 25.5)
(42.05586 8.357841 25.5)
(46.55586 8.357841 25.5)
(51.05586 8.357841 25.5)
(55.55586 25.85784 25.5)
(55.55586 28.35784 25.5)
(55.55586 23.35784 25.5)
(55.55586 18.35784 25.5)
(55.55586 20.85784 25.5)
(55.55586 13.35784 25.5)
(55.55586 15.85784 25.5)
(55.55586 10.85784 25.5)
(10.55586 48.85784 10)
(10.55586 44.35784 10)
(15.05586 53.35784 10)
(10.55586 35.35784 10)
(10.55586 39.85784 10)
(10.55586 30.85784 10)
(19.55586 53.35784 10)
(24.05586 53.35784 10)
(28.55586 53.35784 10)
(33.05586 53.35784 10)
(10.55586 26.35784 10)
(10.55586 21.85784 10)
(10.55586 12.85784 10)
(10.55586 17.35784 10)
(33.05586 8.357841 10)
(28.55586 8.357841 10)
(15.05586 8.357841 10)
(19.55586 8.357841 10)
(24.05586 8.357841 10)
(37.55586 53.35784 10)
(42.05586 53.35784 10)
(46.55586 53.35784 10)
(51.05586 53.35784 10)
(55.55586 48.85784 10)
(55.55586 44.35784 10)
(55.55586 39.85784 10)
(55.55586 35.35784 10)
(55.55586 30.85784 10)
(37.55586 8.357841 10)
(46.55586 8.357841 10)
(42.05586 8.357841 10)
(51.05586 8.357841 10)
(55.55586 26.35784 10)
(55.55586 21.85784 10)
(55.55586 12.85784 10)
(55.55586 17.35784 10)
(10.55586 48.85784 10.5)
(10.55586 44.35784 10.5)
(15.05586 53.35784 10.5)
(10.55586 39.85784 10.5)
(10.55586 35.35784 10.5)
(10.55586 30.85784 10.5)
(19.55586 53.35784 10.5)
(28.55586 53.35784 10.5)
(24.05586 53.35784 10.5)
(33.05586 53.35784 10.5)
(37.55586 53.35784 10.5)
(10.55586 26.35784 10.5)
(10.55586 21.85784 10.5)
(10.55586 17.35784 10.5)
(10.55586 12.85784 10.5)
(15.05586 8.357841 10.5)
(19.55586 8.357841 10.5)
(24.05586 8.357841 10.5)
(28.55586 8.357841 10.5)
(33.05586 8.357841 10.5)
(42.05586 53.35784 10.5)
(51.05586 53.35784 10.5)
(46.55586 53.35784 10.5)
(55.55586 48.35784 10.5)
(55.55586 50.85784 10.5)
(55.55586 45.85784 10.5)
(55.55586 43.35784 10.5)
(55.55586 40.85784 10.5)
(55.55586 38.35784 10.5)
(55.55586 35.85784 10.5)
(55.55586 30.85784 10.5)
(55.55586 33.35784 10.5)
(37.55586 8.357841 10.5)
(42.05586 8.357841 10.5)
(46.55586 8.357841 10.5)
(51.05586 8.357841 10.5)
(55.55586 25.85784 10.5)
(55.55586 28.35784 10.5)
(55.55586 23.35784 10.5)
(55.55586 18.35784 10.5)
(55.55586 20.85784 10.5)
(55.55586 13.35784 10.5)
(55.55586 15.85784 10.5)
(55.55586 10.85784 10.5)
(55.55586 53.35784 22.58334)
(55.55586 53.35784 20.16667)
(55.55586 53.35784 17.75)